Circuit: * C:\Users\Luis Daniel Pambid\OneDrive - Mapua Institute of Technology\FREELANCE\MIGUEL ALMAZAN\PowerSupply.asc

.OP point found by inspection.

Date: Mon Mar 23 23:46:24 2020
Total elapsed time: 0.265 seconds.

tnom = 27
temp = 27
method = modified trap
totiter = 3034
traniter = 3034
tranpoints = 1342
accept = 1240
rejected = 102
matrix size = 12
fillins = 4
solver = Normal
Matrix Compiler1: 874 bytes object code size  0.2/0.2/[0.1]
Matrix Compiler2: 982 bytes object code size  0.1/0.2/[0.1]

